12
XYZ from PySCF
C           0.48234        2.29145        1.58064
H           1.34005        1.67468        1.81401
H           0.55751        2.87306        0.67146
C          -0.57504        2.33072        2.34609
H          -0.65033        1.74850        3.25490
H          -1.43298        2.94701        2.11227
C          -2.64472       -1.04859        0.27679
H          -3.48852       -0.41080        0.04933
H          -2.69214       -1.56711        1.22517
C          -1.63448       -1.18316       -0.53979
H          -1.58690       -0.66402       -1.48785
H          -0.79040       -1.82045       -0.31190
