12
XYZ from PySCF
C           0.04590        3.21011        2.79558
H          -0.50636        3.66056        3.60972
H           1.01064        3.65162        2.58331
C          -0.42158        2.19922        2.11346
H          -1.38632        1.75772        2.32576
H           0.13083        1.74890        1.29936
C          -2.02628       -1.89429        0.04743
H          -2.24002       -2.95292       -0.01815
H          -1.34772       -1.60170        0.83778
C          -2.55307       -1.02624       -0.77399
H          -3.23161       -1.31901       -1.56428
H          -2.33941        0.03243       -0.70858
