12
XYZ from PySCF
C          -0.06301        1.93697        2.63699
H          -0.11799        0.86577        2.49539
H           0.48039        2.26674        3.51255
C          -0.61701        2.77691        1.80449
H          -1.16015        2.44568        0.92933
H          -0.56266        3.84831        1.94514
C          -2.64245       -1.04494        0.27887
H          -3.48651       -0.40748        0.05128
H          -2.69023       -1.56380        1.22707
C          -1.63217       -1.17952       -0.53772
H          -1.58471       -0.66079       -1.48603
H          -0.78830       -1.81724       -0.31016
