12
XYZ from PySCF
C           2.91726        2.46627        1.01190
H           3.63649        1.72726        0.68454
H           2.68614        2.45861        2.06884
C           2.36434        3.31261        0.18515
H           2.59578        3.32034       -0.87174
H           1.64527        4.05172        0.51267
C          -0.77063       -0.75920        0.30996
H          -1.21090       -1.70513        0.59629
H           0.17763       -0.52399        0.77479
C          -1.34615        0.04669       -0.54141
H          -2.29443       -0.18802       -1.00651
H          -0.90521        0.99246       -0.82718
