12
XYZ from PySCF
C           0.43886        3.13430        2.43188
H          -0.00808        3.68370        3.24983
H           1.40956        3.48512        2.10738
C          -0.15470        2.11413        1.87269
H          -1.12545        1.76315        2.19700
H           0.29199        1.56455        1.05467
C          -2.83404       -1.36311        0.08706
H          -3.67489       -0.72036       -0.13774
H          -2.88632       -1.88997        1.03067
C          -1.82184       -1.49461       -0.72773
H          -1.76963       -0.96788       -1.67141
H          -0.98107       -2.13751       -0.50302
