12
XYZ from PySCF
C           0.22288        3.45719        2.96565
H           0.82015        3.29958        3.85399
H           0.02660        4.49017        2.71048
C          -0.23158        2.46509        2.24808
H          -0.03529        1.43211        2.50329
H          -0.82886        2.62273        1.35976
C          -2.21244       -1.21599       -0.18733
H          -2.71626       -0.75097        0.64971
H          -1.24859       -0.79742       -0.44517
C          -2.73382       -2.21743       -0.84383
H          -3.69768       -2.63603       -0.58605
H          -2.23001       -2.68244       -1.68087
