12
XYZ from PySCF
C           0.07153        3.17497        2.76740
H           0.67717        3.04154        3.65399
H          -0.13088        4.20063        2.48868
C          -0.38543        2.16383        2.07853
H          -0.18315        1.13806        2.35711
H          -0.99114        2.29693        1.19190
C          -2.83750       -1.37700        0.06429
H          -3.69120       -0.75680       -0.17495
H          -2.89632       -1.91292        1.00240
C          -1.80346       -1.47264       -0.72775
H          -1.74469       -0.93683       -1.66591
H          -0.94983       -2.09297       -0.48858
